* XREF SPICE	Fri Jan 31 10:54:33 2020	inverter
* icv_netlist Version RHEL64 O-2018.12-SP2-9.5147677 2019/11/08

* Top of hierarchy  cell=inverter
.subckt inverter VIN VDD VOUT VSS
M_MM2 VOUT VIN VSS VSS n12  l=1e-07 w=2.5e-07 nf=1
M_MM0 VOUT VIN VDD VDD p12  l=1e-07 w=5e-07 nf=1
.ends inverter
